
  EPA STORM WATER MANAGEMENT MODEL - VERSION 5.2 (Build 5.2.4)
  ------------------------------------------------------------

  Web Simulation Output 
  
  ****************
  Analysis Options
  ****************
  Flow Units ............... CMS
  Process Models:
    Rainfall/Runoff ........ YES
    RDII ................... NO
    Snowmelt ............... NO
    Groundwater ............ NO
    Flow Routing ........... YES
    Ponding Allowed ........ YES
    Water Quality .......... NO
  Infiltration Method ...... HORTON
  Flow Routing Method ...... DYNWAVE
  Surcharge Method ......... EXTRAN
  Starting Date ............ 01/01/2024 00:00:00
  Ending Date .............. 01/01/2024 01:00:00
  Antecedent Dry Days ...... 0.0
  Report Time Step ......... 00:01:00
  Wet Time Step ............ 00:01:00
  Dry Time Step ............ 00:01:00
  Routing Time Step ........ 5.00 sec
  Variable Time Step ....... YES
  Maximum Trials ........... 8
  Number of Threads ........ 1
  Head Tolerance ........... 0.001524 m
  
  
  **************************        Volume         Depth
  Runoff Quantity Continuity     hectare-m            mm
  **************************     ---------       -------
  Total Precipitation ......         0.007         6.667
  Evaporation Loss .........         0.000         0.000
  Infiltration Loss ........         0.000         0.095
  Surface Runoff ...........         0.007         6.441
  Final Storage ............         0.000         0.149
  Continuity Error (%) .....        -0.275
  
  
  **************************        Volume        Volume
  Flow Routing Continuity        hectare-m      10^6 ltr
  **************************     ---------     ---------
  Dry Weather Inflow .......         0.000         0.000
  Wet Weather Inflow .......         0.007         0.070
  Groundwater Inflow .......         0.000         0.000
  RDII Inflow ..............         0.000         0.000
  External Inflow ..........         0.000         0.000
  External Outflow .........         0.005         0.048
  Flooding Loss ............         0.002         0.019
  Evaporation Loss .........         0.000         0.000
  Exfiltration Loss ........         0.000         0.000
  Initial Stored Volume ....         0.000         0.000
  Final Stored Volume ......         0.000         0.004
  Continuity Error (%) .....         0.244
  
  
  *************************
  Highest Continuity Errors
  *************************
  Node FK003 (17.80%)
  Node S00 (3.54%)
  Node S00-1 (2.71%)
  Node S01 (2.56%)
  Node FK004 (1.25%)
  
  
  ***************************
  Time-Step Critical Elements
  ***************************
  Link 06001 (96.87%)
  
  
  ********************************
  Highest Flow Instability Indexes
  ********************************
  Link S00-1 (2)
  Link FK003 (1)
  
  
  *********************************
  Most Frequent Nonconverging Nodes
  *********************************
  Node FK012 (2.07%)
  Node FK013 (2.07%)
  Node 06002AP01 (1.11%)
  Node S00-1 (1.01%)
  Node FK009 (0.69%)
  
  
  *************************
  Routing Time Step Summary
  *************************
  Minimum Time Step           :     0.72 sec
  Average Time Step           :     1.66 sec
  Maximum Time Step           :     5.00 sec
  % of Time in Steady State   :     0.00
  Average Iterations per Step :     2.44
  % of Steps Not Converging   :     2.07
  Time Step Frequencies       :
      5.000 -  3.155 sec      :     3.09 %
      3.155 -  1.991 sec      :    33.06 %
      1.991 -  1.256 sec      :    12.59 %
      1.256 -  0.792 sec      :    32.83 %
      0.792 -  0.500 sec      :    18.44 %
  
  
  ***************************
  Subcatchment Runoff Summary
  ***************************
  
  ------------------------------------------------------------------------------------------------------------------------------
                            Total      Total      Total      Total     Imperv       Perv      Total       Total     Peak  Runoff
                           Precip      Runon       Evap      Infil     Runoff     Runoff     Runoff      Runoff   Runoff   Coeff
  Subcatchment                 mm         mm         mm         mm         mm         mm         mm    10^6 ltr      CMS
  ------------------------------------------------------------------------------------------------------------------------------
  DA17                       6.67       0.00       0.00       0.08       5.97       0.59       6.56        0.00     0.00   0.984
  DA18                       6.67       0.00       0.00       0.08       5.96       0.59       6.55        0.00     0.00   0.982
  DA19                       6.67       0.00       0.00       0.08       5.96       0.59       6.55        0.00     0.00   0.982
  DA20                       6.67       0.00       0.00       0.08       5.96       0.59       6.55        0.00     0.00   0.982
  DA30                       6.67       0.00       0.00       0.08       5.96       0.59       6.55        0.00     0.00   0.982
  DA12                       6.67       0.00       0.00       0.08       5.96       0.59       6.55        0.00     0.00   0.982
  Da13                       6.67       0.00       0.00       0.08       5.96       0.59       6.55        0.00     0.00   0.982
  DA14                       6.67       0.00       0.00       0.08       5.96       0.59       6.55        0.00     0.00   0.982
  DA15                       6.67       0.00       0.00       0.08       5.96       0.59       6.55        0.00     0.00   0.982
  DA16                       6.67       0.00       0.00       0.08       5.97       0.59       6.55        0.00     0.00   0.983
  DA05                       6.67       0.00       0.00       0.08       5.97       0.59       6.56        0.00     0.00   0.983
  DA06                       6.67       0.00       0.00       0.08       5.97       0.59       6.56        0.00     0.00   0.984
  DA30_1                     6.67       0.00       0.00       0.08       5.97       0.59       6.56        0.00     0.00   0.985
  DA31                       6.67       0.00       0.00       0.08       5.97       0.59       6.56        0.00     0.00   0.984
  DA32                       6.67       0.00       0.00       0.08       5.97       0.59       6.56        0.00     0.00   0.984
  DA33                       6.67       0.00       0.00       0.08       5.97       0.59       6.56        0.00     0.00   0.984
  DA34                       6.67       0.00       0.00       0.08       5.98       0.59       6.57        0.00     0.00   0.985
  DA35                       6.67       0.00       0.00       0.08       5.97       0.59       6.55        0.00     0.00   0.983
  DA07                       6.67       0.00       0.00       0.09       5.96       0.58       6.54        0.00     0.00   0.981
  DA08                       6.67       0.00       0.00       0.09       5.95       0.58       6.53        0.00     0.00   0.980
  DA09                       6.67       0.00       0.00       0.09       5.94       0.58       6.52        0.00     0.00   0.978
  DA10                       6.67       0.00       0.00       0.08       5.97       0.59       6.56        0.00     0.00   0.983
  DA11                       6.67       0.00       0.00       0.09       5.95       0.58       6.53        0.00     0.00   0.980
  DA01                       6.67       0.00       0.00       0.08       5.97       0.59       6.55        0.00     0.00   0.983
  DA02                       6.67       0.00       0.00       0.08       5.97       0.59       6.56        0.00     0.00   0.984
  DA03                       6.67       0.00       0.00       0.08       5.97       0.59       6.55        0.00     0.00   0.983
  DA04                       6.67       0.00       0.00       0.09       5.95       0.58       6.53        0.00     0.00   0.980
  DA19_1                     6.67       0.00       0.00       0.10       5.90       0.57       6.47        0.01     0.01   0.970
  DA17_1                     6.67       0.00       0.00       0.11       5.75       0.54       6.29        0.03     0.03   0.944
  DA18_1                     6.67       0.00       0.00       0.09       5.94       0.58       6.52        0.00     0.00   0.978
  DA20_1                     6.67       0.00       0.00       0.09       5.94       0.58       6.51        0.00     0.00   0.977
  DA21                       6.67       0.00       0.00       0.08       5.97       0.59       6.55        0.00     0.00   0.983
  DA22                       6.67       0.00       0.00       0.08       5.97       0.59       6.55        0.00     0.00   0.983
  DA23                       6.67       0.00       0.00       0.08       5.97       0.59       6.55        0.00     0.00   0.983
  DA24                       6.67       0.00       0.00       0.08       5.97       0.59       6.55        0.00     0.00   0.983
  DA25                       6.67       0.00       0.00       0.08       5.97       0.59       6.55        0.00     0.00   0.983
  DA26                       6.67       0.00       0.00       0.08       5.97       0.59       6.55        0.00     0.00   0.983
  DA27                       6.67       0.00       0.00       0.08       5.97       0.59       6.55        0.00     0.00   0.983
  DA28                       6.67       0.00       0.00       0.08       5.97       0.59       6.55        0.00     0.00   0.983
  DA29                       6.67       0.00       0.00       0.08       5.96       0.59       6.55        0.00     0.00   0.982
  
  
  ******************
  Node Depth Summary
  ******************
  
  ---------------------------------------------------------------------------------
                                 Average  Maximum  Maximum  Time of Max    Reported
                                   Depth    Depth      HGL   Occurrence   Max Depth
  Node                 Type       Meters   Meters   Meters  days hr:min      Meters
  ---------------------------------------------------------------------------------
  FK003                JUNCTION     0.33     1.46   270.00     0  00:12        0.46
  FK004                JUNCTION     0.08     0.14   268.69     0  00:14        0.14
  FK005                JUNCTION     0.04     0.09   268.66     0  00:15        0.09
  FK007                JUNCTION     0.05     0.11   268.41     0  00:15        0.11
  FK008                JUNCTION     0.13     0.20   268.69     0  00:15        0.20
  FK009                JUNCTION     0.37     1.48   269.97     0  00:12        0.51
  FK010                JUNCTION     0.00     0.00   262.80     0  00:00        0.00
  FK011                JUNCTION     0.00     0.00   262.80     0  00:00        0.00
  F001                 JUNCTION     0.01     0.04   267.89     0  00:15        0.04
  S00                  JUNCTION     1.31     2.00   267.25     0  00:10        1.73
  S00-1                JUNCTION     1.67     2.00   266.79     0  00:10        1.99
  S01                  JUNCTION     1.33     2.00   267.27     0  00:10        1.87
  S02                  JUNCTION     0.03     0.07   267.60     0  00:15        0.07
  S03                  JUNCTION     0.05     0.12   267.72     0  00:15        0.12
  S04                  JUNCTION     0.04     0.08   268.28     0  00:15        0.08
  S05                  JUNCTION     0.03     0.06   267.64     0  00:15        0.06
  S05-1                JUNCTION     0.03     0.06   266.33     0  00:15        0.06
  S06                  JUNCTION     0.04     0.08   265.53     0  00:15        0.08
  S07                  JUNCTION     0.04     0.08   262.79     0  00:15        0.08
  S08                  JUNCTION     0.02     0.03   263.62     0  00:15        0.03
  S09                  JUNCTION     0.02     0.03   264.10     0  00:15        0.03
  S10                  JUNCTION     0.01     0.02   267.17     0  00:15        0.02
  S11                  JUNCTION     0.02     0.04   267.48     0  00:15        0.04
  Zisterne-1           JUNCTION     0.00     0.00   266.70     0  00:00        0.00
  Zisterne-3           JUNCTION     0.00     0.00   266.49     0  00:00        0.00
  Zisterne_3           JUNCTION     0.00     0.00   265.27     0  00:00        0.00
  06001                JUNCTION     0.01     0.03   263.62     0  00:15        0.03
  06002                JUNCTION     0.03     0.05   267.33     0  00:15        0.05
  06003                JUNCTION     0.00     0.00   267.41     0  00:00        0.00
  06004                JUNCTION     0.00     0.00   267.95     0  00:00        0.00
  06005                JUNCTION     0.00     0.00   268.86     0  00:00        0.00
  06005.2              JUNCTION     0.00     0.00   269.03     0  00:00        0.00
  06006                JUNCTION     0.00     0.00   270.06     0  00:00        0.00
  FK019                JUNCTION     0.00     0.00   268.35     0  00:00        0.00
  GA001                JUNCTION     0.00     0.00   268.11     0  00:00        0.00
  GA002                JUNCTION     0.00     0.00   268.00     0  00:00        0.00
  GA003                JUNCTION     0.00     0.00   267.91     0  00:00        0.00
  BE001                JUNCTION     0.03     0.08   268.98     0  00:15        0.08
  BE002                JUNCTION     0.02     0.08   268.95     0  00:15        0.08
  BE003                JUNCTION     0.03     0.08   268.91     0  00:15        0.08
  BE004                JUNCTION     0.02     0.08   268.87     0  00:15        0.08
  BE005                JUNCTION     0.03     0.08   268.85     0  00:15        0.08
  BE006                JUNCTION     0.03     0.09   268.81     0  00:15        0.08
  BE007                JUNCTION     0.02     0.08   268.77     0  00:15        0.08
  BE008                JUNCTION     0.01     0.04   268.68     0  00:14        0.04
  BE010                JUNCTION     0.00     0.00   268.96     0  00:00        0.00
  BE011                JUNCTION     0.00     0.00   268.99     0  00:00        0.00
  BE012                JUNCTION     0.00     0.00   268.98     0  00:00        0.00
  BE013                JUNCTION     0.00     0.00   268.48     0  00:00        0.00
  BE014                JUNCTION     0.00     0.00   267.31     0  00:00        0.00
  BE015                JUNCTION     0.00     0.00   268.58     0  00:00        0.00
  SE016                JUNCTION     0.00     0.00   268.54     0  00:00        0.00
  SE017                JUNCTION     0.00     0.00   268.48     0  00:00        0.00
  SE018                JUNCTION     0.00     0.00   268.21     0  00:00        0.00
  S01AP01              JUNCTION     0.00     0.00   265.26     0  00:00        0.00
  FK006AP01            JUNCTION     0.00     0.00   268.33     0  00:00        0.00
  S04AP01              JUNCTION     0.00     0.00   268.06     0  00:00        0.00
  S04AP02              JUNCTION     0.00     0.00   267.95     0  00:00        0.00
  S04AP03              JUNCTION     0.00     0.00   267.86     0  00:00        0.00
  S00AP01              JUNCTION     0.00     0.00   265.24     0  00:00        0.00
  S10AP01              JUNCTION     0.00     0.00   264.38     0  00:00        0.00
  06002AP01            JUNCTION     1.72     2.00   266.73     0  00:10        2.00
  FK012                OUTFALL      0.04     0.08   260.08     0  00:16        0.08
  FK013                OUTFALL      0.01     0.03   262.24     0  00:15        0.03
  
  
  *******************
  Node Inflow Summary
  *******************
  
  -------------------------------------------------------------------------------------------------
                                  Maximum  Maximum                  Lateral       Total        Flow
                                  Lateral    Total  Time of Max      Inflow      Inflow     Balance
                                   Inflow   Inflow   Occurrence      Volume      Volume       Error
  Node                 Type           CMS      CMS  days hr:min    10^6 ltr    10^6 ltr     Percent
  -------------------------------------------------------------------------------------------------
  FK003                JUNCTION     0.007    0.007     0  00:14     0.00439     0.00441      21.658
  FK004                JUNCTION     0.008    0.008     0  00:14     0.00471     0.00497       1.266
  FK005                JUNCTION     0.000    0.008     0  00:15           0     0.00447       0.289
  FK007                JUNCTION     0.002    0.010     0  00:15     0.00147     0.00592       0.152
  FK008                JUNCTION     0.000    0.002     0  00:08           0    0.000442       0.000
  FK009                JUNCTION     0.000    0.004     0  00:11           0    0.000469       0.000
  FK010                JUNCTION     0.000    0.000     0  00:00           0           0       0.000 ltr
  FK011                JUNCTION     0.000    0.000     0  00:00           0           0       0.000 ltr
  F001                 JUNCTION     0.000    0.007     0  00:15           0     0.00312       0.177
  S00                  JUNCTION     0.000    0.034     0  00:15           0      0.0206       3.673
  S00-1                JUNCTION     0.000    0.034     0  00:15           0      0.0199       2.783
  S01                  JUNCTION     0.006    0.034     0  00:15     0.00378      0.0211       2.631
  S02                  JUNCTION     0.012    0.028     0  00:15     0.00757      0.0173      -0.032
  S03                  JUNCTION     0.001    0.016     0  00:15    0.000877     0.00979       0.179
  S04                  JUNCTION     0.005    0.015     0  00:15       0.003     0.00892       0.010
  S05                  JUNCTION     0.009    0.016     0  00:15     0.00564     0.00875      -0.021
  S05-1                JUNCTION     0.000    0.016     0  00:15           0     0.00876       0.269
  S06                  JUNCTION     0.033    0.047     0  00:15      0.0262       0.035       0.052
  S07                  JUNCTION     0.000    0.050     0  00:15           0      0.0372       0.140
  S08                  JUNCTION     0.000    0.004     0  00:15           0     0.00223       0.034
  S09                  JUNCTION     0.000    0.004     0  00:15           0     0.00223       0.093
  S10                  JUNCTION     0.000    0.004     0  00:15           0     0.00223       0.055
  S11                  JUNCTION     0.004    0.004     0  00:15     0.00224     0.00224       0.103
  Zisterne-1           JUNCTION     0.000    0.000     0  00:00           0           0       0.000 ltr
  Zisterne-3           JUNCTION     0.000    0.000     0  00:00           0           0       0.000 ltr
  Zisterne_3           JUNCTION     0.000    0.000     0  00:00           0           0       0.000 ltr
  06001                JUNCTION     0.000    0.017     0  00:15           0      0.0104       0.027
  06002                JUNCTION     0.017    0.017     0  00:15      0.0104      0.0104      -0.000
  06003                JUNCTION     0.000    0.000     0  00:00           0           0       0.000 ltr
  06004                JUNCTION     0.000    0.000     0  00:00           0           0       0.000 ltr
  06005                JUNCTION     0.000    0.000     0  00:00           0           0       0.000 ltr
  06005.2              JUNCTION     0.000    0.000     0  00:00           0           0       0.000 ltr
  06006                JUNCTION     0.000    0.000     0  00:00           0           0       0.000 ltr
  FK019                JUNCTION     0.000    0.000     0  00:00           0           0       0.000 ltr
  GA001                JUNCTION     0.000    0.000     0  00:00           0           0       0.000 ltr
  GA002                JUNCTION     0.000    0.000     0  00:00           0           0       0.000 ltr
  GA003                JUNCTION     0.000    0.000     0  00:00           0           0       0.000 ltr
  BE001                JUNCTION     0.000    0.007     0  00:15           0     0.00316       0.157
  BE002                JUNCTION     0.000    0.007     0  00:15           0     0.00315       0.136
  BE003                JUNCTION     0.000    0.007     0  00:15           0     0.00315       0.147
  BE004                JUNCTION     0.000    0.007     0  00:15           0     0.00314       0.135
  BE005                JUNCTION     0.000    0.007     0  00:15           0     0.00314       0.182
  BE006                JUNCTION     0.000    0.007     0  00:15           0     0.00313       0.139
  BE007                JUNCTION     0.000    0.007     0  00:15           0     0.00313       0.190
  BE008                JUNCTION     0.000    0.007     0  00:15           0     0.00312       0.037
  BE010                JUNCTION     0.000    0.000     0  00:00           0           0       0.000 ltr
  BE011                JUNCTION     0.000    0.000     0  00:00           0           0       0.000 ltr
  BE012                JUNCTION     0.000    0.000     0  00:00           0           0       0.000 ltr
  BE013                JUNCTION     0.000    0.000     0  00:00           0           0       0.000 ltr
  BE014                JUNCTION     0.000    0.000     0  00:00           0           0       0.000 ltr
  BE015                JUNCTION     0.000    0.000     0  00:00           0           0       0.000 ltr
  SE016                JUNCTION     0.000    0.000     0  00:00           0           0       0.000 ltr
  SE017                JUNCTION     0.000    0.000     0  00:00           0           0       0.000 ltr
  SE018                JUNCTION     0.000    0.000     0  00:00           0           0       0.000 ltr
  S01AP01              JUNCTION     0.000    0.000     0  00:00           0           0       0.000 ltr
  FK006AP01            JUNCTION     0.000    0.000     0  00:00           0           0       0.000 ltr
  S04AP01              JUNCTION     0.000    0.000     0  00:00           0           0       0.000 ltr
  S04AP02              JUNCTION     0.000    0.000     0  00:00           0           0       0.000 ltr
  S04AP03              JUNCTION     0.000    0.000     0  00:00           0           0       0.000 ltr
  S00AP01              JUNCTION     0.000    0.000     0  00:00           0           0       0.000 ltr
  S10AP01              JUNCTION     0.000    0.000     0  00:00           0           0       0.000 ltr
  06002AP01            JUNCTION     0.000    0.034     0  00:15           0      0.0194       0.000
  FK012                OUTFALL      0.000    0.050     0  00:16           0      0.0371       0.000
  FK013                OUTFALL      0.000    0.017     0  00:15           0      0.0104       0.000
  
  
  **********************
  Node Surcharge Summary
  **********************
  
  Surcharging occurs when water rises above the top of the highest conduit.
  ---------------------------------------------------------------------
                                               Max. Height   Min. Depth
                                   Hours       Above Crown    Below Rim
  Node                 Type      Surcharged         Meters       Meters
  ---------------------------------------------------------------------
  FK003                JUNCTION        0.80          1.258        0.542
  FK009                JUNCTION        0.80          1.276        0.524
  S00                  JUNCTION        0.82          1.800        0.000
  S00-1                JUNCTION        0.84          1.800        0.000
  S01                  JUNCTION        0.82          1.800        0.000
  Zisterne-1           JUNCTION        1.00          0.000        2.000
  Zisterne-3           JUNCTION        1.00          0.000        2.000
  06002AP01            JUNCTION        0.84          1.800        0.000
  
  
  *********************
  Node Flooding Summary
  *********************
  
  Flooding refers to all water that overflows a node, whether it ponds or not.
  --------------------------------------------------------------------------
                                                             Total   Maximum
                                 Maximum   Time of Max       Flood    Ponded
                        Hours       Rate    Occurrence      Volume     Depth
  Node                 Flooded       CMS   days hr:min    10^6 ltr    Meters
  --------------------------------------------------------------------------
  S00                     0.01     0.011      0  00:10       0.000     0.000
  S00-1                   0.01     0.007      0  00:10       0.000     0.000
  S01                     0.01     0.001      0  00:10       0.000     0.000
  06002AP01               0.82     0.034      0  00:15       0.019     0.000
  
  
  ***********************
  Outfall Loading Summary
  ***********************
  
  -----------------------------------------------------------
                         Flow       Avg       Max       Total
                         Freq      Flow      Flow      Volume
  Outfall Node           Pcnt       CMS       CMS    10^6 ltr
  -----------------------------------------------------------
  FK012                 96.45     0.018     0.050       0.037
  FK013                 95.99     0.006     0.017       0.010
  -----------------------------------------------------------
  System                96.22     0.024     0.065       0.048
  
  
  ********************
  Link Flow Summary
  ********************
  
  -----------------------------------------------------------------------------
                                 Maximum  Time of Max   Maximum    Max/    Max/
                                  |Flow|   Occurrence   |Veloc|    Full    Full
  Link                 Type          CMS  days hr:min     m/sec    Flow   Depth
  -----------------------------------------------------------------------------
  BE008                CONDUIT     0.007     0  00:15      0.44    0.16    0.71
  BE009                CONDUIT     0.007     0  00:15      1.75    0.09    0.20
  FK003                CONDUIT     0.004     0  00:11      0.35    0.21    1.00
  FK004                CONDUIT     0.002     0  00:08      0.37    0.13    0.85
  FK006                CONDUIT     0.008     0  00:15      0.72    0.83    0.80
  FK005                CONDUIT     0.008     0  00:15      0.42    0.47    0.57
  FK008                CONDUIT     0.010     0  00:15      0.84    0.93    0.64
  FK010                CONDUIT     0.000     0  00:00      0.00    0.00    0.20
  FK011                CONDUIT     0.000     0  00:00      0.00    0.00    0.20
  S07                  CONDUIT     0.007     0  00:15      1.16    0.09    0.26
  S00                  CONDUIT     0.034     0  00:15      1.09    0.66    1.00
  S01                  CONDUIT     0.034     0  00:15      1.08    2.90    1.00
  S02                  CONDUIT     0.028     0  00:15      1.23    0.19    0.68
  S03                  CONDUIT     0.016     0  00:15      1.15    0.73    0.47
  S04                  CONDUIT     0.014     0  00:15      1.17    0.56    0.66
  S05                  CONDUIT     0.016     0  00:15      1.62    0.15    0.26
  S05-1                CONDUIT     0.015     0  00:15      1.30    0.15    0.29
  S06                  CONDUIT     0.047     0  00:15      3.09    0.15    0.27
  S12                  CONDUIT     0.050     0  00:16      2.18    0.04    0.14
  S08                  CONDUIT     0.004     0  00:15      0.41    0.02    0.19
  S09                  CONDUIT     0.004     0  00:15      1.10    0.06    0.16
  S10                  CONDUIT     0.004     0  00:15      1.37    0.03    0.14
  S11                  CONDUIT     0.004     0  00:15      1.02    0.09    0.17
  06001                CONDUIT     0.017     0  00:15      3.21    0.00    0.05
  06002                CONDUIT     0.017     0  00:15      2.50    0.04    0.11
  06003                CONDUIT     0.000     0  00:00      0.00    0.00    0.06
  06004                CONDUIT     0.000     0  00:00      0.00    0.00    0.00
  06005                CONDUIT     0.000     0  00:00      0.00    0.00    0.00
  06005.2              CONDUIT     0.000     0  00:00      0.00    0.00    0.00
  06006                CONDUIT     0.000     0  00:00      0.00    0.00    0.00
  BE001                CONDUIT     0.007     0  00:15      0.89    0.62    0.53
  BE002                CONDUIT     0.007     0  00:15      0.98    0.50    0.52
  BE003                CONDUIT     0.007     0  00:15      0.97    0.58    0.53
  BE004                CONDUIT     0.007     0  00:15      1.10    0.50    0.54
  BE005                CONDUIT     0.007     0  00:15      0.90    0.61    0.57
  BE006                CONDUIT     0.007     0  00:15      0.93    0.65    0.54
  BE007                CONDUIT     0.007     0  00:15      1.13    0.53    0.39
  BE010                CONDUIT     0.000     0  00:00      0.00    0.00    0.22
  BE011                CONDUIT     0.000     0  00:00      0.00    0.00    0.22
  BE012                CONDUIT     0.000     0  00:00      0.00    0.00    0.00
  BE013                CONDUIT     0.000     0  00:00      0.00    0.00    0.21
  BE014                CONDUIT     0.000     0  00:00      0.00    0.00    0.26
  BE015                CONDUIT     0.000     0  00:00      0.00    0.00    0.00
  FK019                CONDUIT     0.000     0  00:00      0.00    0.00    0.00
  GA001                CONDUIT     0.000     0  00:00      0.00    0.00    0.00
  GA002                CONDUIT     0.000     0  00:00      0.00    0.00    0.00
  GA003                CONDUIT     0.000     0  00:00      0.00    0.00    0.00
  SE016                CONDUIT     0.000     0  00:00      0.00    0.00    0.00
  SE017                CONDUIT     0.000     0  00:00      0.00    0.00    0.00
  SE018                CONDUIT     0.000     0  00:00      0.00    0.00    0.11
  S00-1                CONDUIT     0.034     0  00:15      1.09    0.88    1.00
  
  
  ***************************
  Flow Classification Summary
  ***************************
  
  -------------------------------------------------------------------------------------
                      Adjusted    ---------- Fraction of Time in Flow Class ---------- 
                       /Actual         Up    Down  Sub   Sup   Up    Down  Norm  Inlet 
  Conduit               Length    Dry  Dry   Dry   Crit  Crit  Crit  Crit  Ltd   Ctrl  
  -------------------------------------------------------------------------------------
  BE008                   1.00   0.08  0.12  0.00  0.80  0.00  0.00  0.00  0.00  0.00
  BE009                   1.00   0.23  0.00  0.00  0.00  0.77  0.00  0.00  0.76  0.00
  FK003                   1.00   0.08  0.00  0.00  0.91  0.01  0.00  0.00  0.02  0.00
  FK004                   1.00   0.08  0.00  0.00  0.90  0.01  0.00  0.00  0.02  0.00
  FK006                   1.00   0.08  0.03  0.00  0.88  0.00  0.00  0.00  0.88  0.00
  FK005                   1.00   0.08  0.03  0.00  0.88  0.00  0.00  0.00  0.00  0.00
  FK008                   1.00   0.08  0.00  0.00  0.66  0.26  0.00  0.00  0.08  0.00
  FK010                   1.00   0.09  0.91  0.00  0.00  0.00  0.00  0.00  0.00  0.00
  FK011                   1.00   0.09  0.91  0.00  0.00  0.00  0.00  0.00  0.00  0.00
  S07                     1.00   0.08  0.15  0.00  0.01  0.76  0.00  0.00  0.76  0.00
  S00                     1.00   0.10  0.00  0.00  0.86  0.04  0.00  0.00  0.02  0.00
  S01                     1.00   0.08  0.00  0.00  0.88  0.04  0.00  0.00  0.00  0.00
  S02                     1.00   0.08  0.00  0.00  0.77  0.15  0.00  0.00  0.83  0.00
  S03                     1.00   0.08  0.00  0.00  0.05  0.86  0.00  0.00  0.03  0.00
  S04                     1.00   0.08  0.00  0.00  0.42  0.50  0.00  0.00  0.88  0.00
  S05                     1.00   0.08  0.00  0.00  0.01  0.91  0.00  0.00  0.74  0.00
  S05-1                   1.00   0.08  0.01  0.00  0.42  0.49  0.00  0.00  0.91  0.00
  S06                     1.00   0.08  0.00  0.00  0.01  0.91  0.00  0.00  0.75  0.00
  S12                     1.00   0.09  0.00  0.00  0.00  0.91  0.00  0.00  0.39  0.00
  S08                     1.00   0.09  0.03  0.00  0.88  0.00  0.00  0.00  0.88  0.00
  S09                     1.00   0.11  0.00  0.00  0.01  0.88  0.00  0.00  0.73  0.00
  S10                     1.00   0.10  0.00  0.00  0.01  0.89  0.00  0.00  0.87  0.00
  S11                     1.00   0.08  0.00  0.00  0.01  0.91  0.00  0.00  0.00  0.00
  06001                   1.00   0.09  0.00  0.00  0.00  0.91  0.00  0.00  0.08  0.00
  06002                   1.00   0.08  0.00  0.00  0.00  0.91  0.00  0.00  0.01  0.00
  06003                   1.00   0.08  0.92  0.00  0.00  0.00  0.00  0.00  0.00  0.00
  06004                   1.00   1.00  0.00  0.00  0.00  0.00  0.00  0.00  0.00  0.00
  06005                   1.00   1.00  0.00  0.00  0.00  0.00  0.00  0.00  0.00  0.00
  06005.2                 1.00   1.00  0.00  0.00  0.00  0.00  0.00  0.00  0.00  0.00
  06006                   1.00   1.00  0.00  0.00  0.00  0.00  0.00  0.00  0.00  0.00
  BE001                   1.00   0.21  0.00  0.00  0.67  0.12  0.00  0.00  0.00  0.00
  BE002                   1.00   0.21  0.00  0.00  0.62  0.18  0.00  0.00  0.66  0.00
  BE003                   1.00   0.21  0.00  0.00  0.63  0.16  0.00  0.00  0.02  0.00
  BE004                   1.00   0.21  0.00  0.00  0.78  0.01  0.00  0.00  0.62  0.00
  BE005                   1.00   0.22  0.00  0.00  0.77  0.01  0.00  0.00  0.74  0.00
  BE006                   1.00   0.22  0.00  0.00  0.77  0.01  0.00  0.00  0.48  0.00
  BE007                   1.00   0.23  0.00  0.00  0.00  0.77  0.00  0.00  0.14  0.00
  BE010                   1.00   0.08  0.92  0.00  0.00  0.00  0.00  0.00  0.00  0.00
  BE011                   1.00   0.08  0.92  0.00  0.00  0.00  0.00  0.00  0.00  0.00
  BE012                   1.00   1.00  0.00  0.00  0.00  0.00  0.00  0.00  0.00  0.00
  BE013                   1.00   0.09  0.91  0.00  0.00  0.00  0.00  0.00  0.00  0.00
  BE014                   1.00   0.08  0.92  0.00  0.00  0.00  0.00  0.00  0.00  0.00
  BE015                   1.00   1.00  0.00  0.00  0.00  0.00  0.00  0.00  0.00  0.00
  FK019                   1.00   1.00  0.00  0.00  0.00  0.00  0.00  0.00  0.00  0.00
  GA001                   1.00   1.00  0.00  0.00  0.00  0.00  0.00  0.00  0.00  0.00
  GA002                   1.00   1.00  0.00  0.00  0.00  0.00  0.00  0.00  0.00  0.00
  GA003                   1.00   1.00  0.00  0.00  0.00  0.00  0.00  0.00  0.00  0.00
  SE016                   1.00   1.00  0.00  0.00  0.00  0.00  0.00  0.00  0.00  0.00
  SE017                   1.00   1.00  0.00  0.00  0.00  0.00  0.00  0.00  0.00  0.00
  SE018                   1.00   0.12  0.88  0.00  0.00  0.00  0.00  0.00  0.00  0.00
  S00-1                   1.00   0.11  0.00  0.00  0.88  0.02  0.00  0.00  0.00  0.00
  
  
  *************************
  Conduit Surcharge Summary
  *************************
  
  ----------------------------------------------------------------------------
                                                           Hours        Hours 
                         --------- Hours Full --------   Above Full   Capacity
  Conduit                Both Ends  Upstream  Dnstream   Normal Flow   Limited
  ----------------------------------------------------------------------------
  BE008                       0.01      0.01      0.79      0.01         0.01
  FK003                       0.80      0.80      0.80      0.01         0.01
  S00                         0.82      0.82      0.84      0.01         0.01
  S01                         0.82      0.82      0.82      0.18         0.18
  S02                         0.01      0.01      0.82      0.01         0.01
  S00-1                       0.84      0.84      0.84      0.01         0.01
  

  Analysis begun on:  Wed Dec 10 17:55:17 2025
  Analysis ended on:  Wed Dec 10 17:55:18 2025
  Total elapsed time: 00:00:01